/*--------------------------------*- C++ -*----------------------------------*\
| =========                 |                                                 |
| \\      /  F ield         | OpenFOAM: The Open Source CFD Toolbox           |
|  \\    /   O peration     | Version:  2.3.0                                 |
|   \\  /    A nd           | Web:      www.OpenFOAM.org                      |
|    \\/     M anipulation  |                                                 |
\*---------------------------------------------------------------------------*/
FoamFile
{
    version     2.0;
    format      ascii;
    class       volScalarField;
    object      p;
}
// * * * * * * * * * * * * * * * * * * * * * * * * * * * * * * * * * * * * * //

dimensions      [0 2 -2 0 0 0 0];

internalField   uniform 0;

boundaryField
{
     inletAir
    {
        type            zeroGradient;
    }
     symmetryRight
    {
        type            symmetry;
    }
     symmetryLeft
    {
        type            symmetry;
    }
    "wallGround.*"
    {
        type            zeroGradient;
    }
     wallBlock
    {
        type            zeroGradient;
    }
     symmetryRoof
    {
        type            symmetry;
    }
     outletPolAir
    {
        type            freestreamPressure;
    }
}

// ************************************************************************* //
